/*--------------------------------*- C++ -*----------------------------------*\
| =========                 |                                                 |
| \\      /  F ield         | foam-extend: Open Source CFD                    |
|  \\    /   O peration     | Version:     3.1                                |
|   \\  /    A nd           | Web:         http://www.extend-project.de       |
|    \\/     M anipulation  |                                                 |
\*---------------------------------------------------------------------------*/
FoamFile
{
    version     2.0;
    format      ascii;
    class       polyBoundaryMesh;
    location    "constant/polyMesh";
    object      boundary;
}
// * * * * * * * * * * * * * * * * * * * * * * * * * * * * * * * * * * * * * //

4
(
    top
    {
        type            patch;
        nFaces          32;
        startFace       1984;
    }
    frontBack
    {
        type            empty;
        nFaces          2048;
        startFace       2016;
    }
    leftRight
    {
        type            patch;
        nFaces          64;
        startFace       4064;
    }
    bottom
    {
        type            patch;
        nFaces          32;
        startFace       4128;
    }
)

// ************************************************************************* //
