/*--------------------------------*- C++ -*----------------------------------*\
| =========                 |                                                 |
| \\      /  F ield         | OpenFOAM: The Open Source CFD Toolbox           |
|  \\    /   O peration     | Version:  2.1.0                                 |
|   \\  /    A nd           | Web:      www.OpenFOAM.org                      |
|    \\/     M anipulation  |                                                 |
\*---------------------------------------------------------------------------*/
FoamFile
{
    version     2.0;
    format      ascii;
    class       dictionary;
    location    "system";
    object      controlDict;
}
// * * * * * * * * * * * * * * * * * * * * * * * * * * * * * * * * * * * * * //

application     moveBodyFoamDavid;

startFrom       startTime;

startTime       0;

stopAt          endTime;

endTime         0.25;

deltaT          1e-2;

writeControl    timeStep;

writeInterval   25;

purgeWrite      0;

writeFormat     ascii;

writePrecision  8;

writeCompression compressed;

timeFormat      general;

timePrecision   8;

runTimeModifiable true;

maxCo 5;

adjustTimeStep yes;

// ************************************************************************* //
