/*--------------------------------*- C++ -*----------------------------------*\
| =========                 |                                                 |
| \\      /  F ield         | foam-extend: Open Source CFD                    |
|  \\    /   O peration     | Version:     3.1                                |
|   \\  /    A nd           | Web:         http://www.extend-project.de       |
|    \\/     M anipulation  |                                                 |
\*---------------------------------------------------------------------------*/
FoamFile
{
    version     2.0;
    format      ascii;
    class       polyBoundaryMesh;
    location    "constant/polyMesh";
    object      boundary;
}
// * * * * * * * * * * * * * * * * * * * * * * * * * * * * * * * * * * * * * //

3
(
    plateFix
    {
        type            wall;
        nFaces          2;
        startFace       121;
    }
    plate
    {
        type            wall;
        nFaces          84;
        startFace       123;
    }
    defaultFaces
    {
        type            empty;
        nFaces          164;
        startFace       207;
    }
)

// ************************************************************************* //
