// -*- C++ -*-
// File generated by PyFoam - sorry for the ugliness

FoamFile
{
 version 2.0;
 format ascii;
 class dictionary;
 object fvSolution;
}

solvers
{
  U
  {
    solver           PCG;
    preconditioner   DIC;
    tolerance        1e-9;
    relTol           1e-2;
  }
}

solidMechanics
{
  nCorrectors 1000;
  U 1e-8;
  divSigmaExp standard;
  divSigmaLargeStrainExp standard;
  moveMeshMethod leastSquares;
  gravity gravity       [ 0 1 -2 0 0 0 0 ] (0 0 0) ;
}

relaxationFactors
{
  U 0.9;
}

