// -*- C++ -*-
// File generated by PyFoam - sorry for the ugliness

FoamFile
{
 version 2.0;
 format ascii;
 root "";
 case "";
 instance "";
 local "";
 class dictionary;
 object fvSolution;
}

solvers
{
  p
  {
    solver PCG;
    preconditioner DIC;
    tolerance 1e-13;
    relTol 0.001;
  }

  U
  {
    solver BiCGStab;
    preconditioner DILU;
    tolerance 1e-13;
  }
}

PIMPLE
{
    nCorrectors 5;
    nNonOrthogonalCorrectors 0;
    tolerance 1.0e-10;
    relTol 1.0e-2;
    maxIter 10;
    minIter 1;
    pisoTol 1e-3;
}

relaxationFactors
{
  U 0.9;
}
