/*--------------------------------*- C++ -*----------------------------------*| =========                 |                                                 |
| \\      /  F ield         | OpenFOAM: The Open Source CFD Toolbox           |
|  \\    /   O peration     | Version:  1.3                                   |
|   \\  /    A nd           | Web:      http://www.openfoam.org               |
|    \\/     M anipulation  |                                                 |
\*---------------------------------------------------------------------------*/

FoamFile
{
    version         2.0;
    format          ascii;
    class           dictionary;
    object          blockMeshDict;
}

// * * * * * * * * * * * * * * * * * * * * * * * * * * * * * * * * * * * * * //


convertToMeters 1;

vertices
(
    // Block 0
    (0.24899 0.19 0) // vertex 0
    (0.299528 0.19 0)
    (0.299528 0.21 0)
    (0.24899 0.21 0)
    (0.24899 0.19 1) // vertex 4
    (0.299528 0.19 1)
    (0.299528 0.21 1)
    (0.24899 0.21 1)

    // Block 1
    (0.6 0.19 0) // vertex 8
    (0.6 0.21 0)
    (0.6 0.19 1) // vertex 10
    (0.6 0.21 1)
);

blocks
(
    hex (0 1 2 3 4 5 6 7) (22 4 1) simpleGrading (5 1 1)
    hex (1 8 9 2 5 10 11 6) (60 4 1) simpleGrading (1 1 1)
);

edges
(
);

patches
(
    wall plateFix
    (
        (0 4 7 3)
    )
    wall plate
    (
        (0 1 5 4)
        (3 7 6 2)
        (1 8 10 5)
        (2 6 11 9)
        (8 9 11 10)
    )
);

mergePatchPairs
(
);


// ************************************************************************* //
