// -*- C++ -*-
// File generated by PyFoam - sorry for the ugliness

FoamFile
{
 version 2.0;
 format ascii;
 root "";
 case "";
 instance "";
 local "";
 class dictionary;
 object fvSolution;
}

solvers
{
  p
  {
    solver PCG;
    preconditioner DIC;
    tolerance 1e-13;
    relTol 0.001;
  }
  
  U
  {
    solver BiCGStab;
    preconditioner DILU;
    tolerance 1e-13;
    relTol 0.001;
  }
}

PIMPLE
{
  nOuterCorrectors 500;
  nCorrectors 5;
  nNonOrthogonalCorrectors 0;
}

relaxationFactors
{
  U 0.9;
}
