/*--------------------------------*- C++ -*----------------------------------*\
| =========                 |                                                 |
| \\      /  F ield         | foam-extend: Open Source CFD                    |
|  \\    /   O peration     | Version:     3.0                                |
|   \\  /    A nd           | Web:         http://www.extend-project.de       |
|    \\/     M anipulation  |                                                 |
\*---------------------------------------------------------------------------*/
FoamFile
{
    version     2.0;
    format      ascii;
    class       dictionary;
    object      fvSchemes;
}
// * * * * * * * * * * * * * * * * * * * * * * * * * * * * * * * * * * * * * //

d2dt2Schemes
{
    default backward2;
}

gradSchemes
{
    default extendedLeastSquares       0 ;
}

divSchemes
{
    default Gauss linear ;
}

laplacianSchemes
{
    default Gauss linear corrected 1;
}

snGradSchemes
{
    default corrected;
}

interpolationSchemes
{
    default linear;
}

// ************************************************************************* //
