// -*- C++ -*-
// File generated by PyFoam - sorry for the ugliness

FoamFile
{
 version 2.0;
 format ascii;
 root "";
 case "";
 instance "";
 local "";
 class dictionary;
 object fvSchemes;
}

ddtSchemes
{
  default bdf1;
}

d2dt2Schemes
{
  default backward2;
}

gradSchemes
{
  default none;
  grad(U) extendedLeastSquares       0 ;
  grad(DU) extendedLeastSquares       0 ;
}

divSchemes
{
  default none;
  div(sigma) Gauss linear ;
}

laplacianSchemes
{
  default none;
  laplacian(DU,U) Gauss linear corrected ;
  laplacian(DDU,DU) Gauss linear corrected ;
}

snGradSchemes
{
  default corrected;
}

interpolationSchemes
{
  default linear;
  interpolate(sigma) linear;
  interpolate(mu) linear;
  interpolate(lambda) linear;
}

