// -*- C++ -*-
// File generated by PyFoam - sorry for the ugliness

FoamFile
{
 version 2.0;
 format ascii;
 root "";
 case "";
 instance "";
 local "";
 class dictionary;
 object rheologyProperties;
}

planeStress no;

rheology
{
  type linearElastic;
  rho rho       [ 1 -3 0 0 0 0 0 ]       1000.0 ;
  E E       [ 1 -1 -2 0 0 0 0 ]       1400000.0 ;
  nu nu       [ 0 0 0 0 0 0 0 ]       0.4 ;
} 	// ************************************************************************* //
