// -*- C++ -*-
// File generated by PyFoam - sorry for the ugliness

FoamFile
{
 version 2.0;
 format ascii;
 class dictionary;
 object decomposeParDict;
}

numberOfSubdomains 3;

method scotch; 	// ************************************************************************* //
