/*--------------------------------*- C++ -*----------------------------------*\
| =========                 |                                                 |
| \\      /  F ield         | OpenFOAM Extend Project: Open Source CFD        |
|  \\    /   O peration     | Version:  1.6-ext                               |
|   \\  /    A nd           | Web:      www.extend-project.de                 |
|    \\/     M anipulation  |                                                 |
\*---------------------------------------------------------------------------*/
FoamFile
{
    version     2.0;
    format      ascii;
    class       dictionary;
    object      fvSolution;
}
// * * * * * * * * * * * * * * * * * * * * * * * * * * * * * * * * * * * * * //

solvers
{
    p
    {
        solver           PCG;
        preconditioner   DIC;
        tolerance        1e-6;
        relTol           0;
		minIter			 1;
    };

    U
    {
        solver           smoothSolver;
        smoother         GaussSeidel;
        tolerance        1e-6;
        relTol           0;
		minIter			 1;
    };
}

SIMPLE
{
    momentumPredictor yes;
    pRefCell		0;
    pRefValue       0;

    convergence 1e-4;
}

relaxationFactors
{
	p 0.7;
	U 0.7;
}

// ************************************************************************* //
