/*--------------------------------*- C++ -*----------------------------------*\
| =========                 |                                                 |
| \\      /  F ield         | foam-extend: Open Source CFD                    |
|  \\    /   O peration     | Version:     3.0                                |
|   \\  /    A nd           | Web:         http://www.extend-project.de       |
|    \\/     M anipulation  |                                                 |
\*---------------------------------------------------------------------------*/
FoamFile
{
    version     2.0;
    format      ascii;
    class       dictionary;
    object      blockMeshDict;
}
// * * * * * * * * * * * * * * * * * * * * * * * * * * * * * * * * * * * * * //

convertToMeters 1;

vertices
(
  (3 0 0)
  (4 0 0)
  (4 2 0)
  (3 2 0)
  (3 0 1)
  (4 0 1)
  (4 2 1)
  (3 2 1)


);

blocks
(
    hex (0 1 2 3 4 5 6 7) (8 16 1) simpleGrading (1 1 1)
);

edges
(
);

patches
(
    wall interface
    (
      (0 4 7 3)
      (3 7 6 2)
      (1 2 6 5)
    )

    empty left
    (
      (0 1 2 3)
    )
    empty right
    (
      (4 5 6 7)
    )

    wall bottom
    (
      (0 1 5 4)
      )
);

mergePatchPairs
(
);

// ************************************************************************* //
