/*--------------------------------*- C++ -*----------------------------------*\
| =========                 |                                                 |
| \\      /  F ield         | OpenFOAM Extend Project: Open source CFD        |
|  \\    /   O peration     | Version:  1.6-ext                               |
|   \\  /    A nd           | Web:      www.extend-project.de                 |
|    \\/     M anipulation  |                                                 |
\*---------------------------------------------------------------------------*/
FoamFile
{
    version     2.0;
    format      ascii;
    class       dictionary;
    location    system;
    object      sampleDict;
}

// * * * * * * * * * * * * * * * * * * * * * * * * * * * * * * * * * * * * //

// Set output format : choice of
setFormat raw;

// Surface output format. Choice of
surfaceFormat raw;

// interpolationScheme. choice of
//      cell          : use cell-centre value only; constant over cells (default)
//      cellPoint     : use cell-centre and vertex values
//      cellPointFace : use cell-centre, vertex and face values.
// 1] vertex values determined from neighbouring cell-centre values
// 2] face values determined using the current face interpolation scheme
//    for the field (linear, gamma, etc.)
interpolationScheme cellPointFace;

// Fields to sample.
fields
(
    p
    wallShearStress
);

sets
(
);

surfaces
(
	airfoil
    {
        type            patch;
        patchName       airfoil;
        // Optional: whether to leave as faces (=default) or triangulate
        // triangulate     false;
    }
);


// *********************************************************************** //
