/*--------------------------------*- C++ -*----------------------------------*\
| =========                 |                                                 |
| \\      /  F ield         | foam-extend: Open Source CFD                    |
|  \\    /   O peration     | Version:     3.1                                |
|   \\  /    A nd           | Web:         http://www.extend-project.de       |
|    \\/     M anipulation  |                                                 |
\*---------------------------------------------------------------------------*/
FoamFile
{
    version     2.0;
    format      ascii;
    class       volVectorField;
    location    "0";
    object      U;
}
// * * * * * * * * * * * * * * * * * * * * * * * * * * * * * * * * * * * * * //

dimensions      [0 1 0 0 0 0 0];

internalField   uniform (0 0 0);

boundaryField
{
    inlet
    {
        type            fixedDisplacement;
        value           uniform (0 0 0);
    }
    outlet
    {
        type            fixedDisplacement;
        value           uniform (0 0 0);
    }
    inner-wall
    {
        type            solidTraction;
        nonLinear       totalLagrangian;
        traction        uniform ( 0 0 0 );
        pressure        uniform 0;
        value           uniform (0 0 0);
    }
    outer-wall
    {
        type            solidTraction;
        nonLinear       totalLagrangian;
        traction        uniform ( 0 0 0 );
        pressure        uniform 0;
        value           uniform (0 0 0);
    }
    symmetry-x
    {
        type            symmetryPlane;
        value           uniform (0 0 0);
    }
    symmetry-y
    {
        type            symmetryPlane;
        value           uniform (0 0 0);
    }
}


// ************************************************************************* //
