/*--------------------------------*- C++ -*----------------------------------*\
| =========                 |                                                 |
| \\      /  F ield         | foam-extend: Open Source CFD                    |
|  \\    /   O peration     | Version:     3.1                                |
|   \\  /    A nd           | Web:         http://www.extend-project.de       |
|    \\/     M anipulation  |                                                 |
\*---------------------------------------------------------------------------*/
FoamFile
{
    version     2.0;
    format      ascii;
    class       polyBoundaryMesh;
    location    "constant/polyMesh";
    object      boundary;
}
// * * * * * * * * * * * * * * * * * * * * * * * * * * * * * * * * * * * * * //

4
(
    top
    {
        type            patch;
        nFaces          1024;
        startFace       47104;
    }
    frontBack
    {
        type            patch;
        nFaces          1024;
        startFace       48128;
    }
    leftRight
    {
        type            patch;
        nFaces          1024;
        startFace       49152;
    }
    bottom
    {
        type            patch;
        nFaces          1024;
        startFace       50176;
    }
)

// ************************************************************************* //
