// -*- C++ -*-
// File generated by PyFoam - sorry for the ugliness

FoamFile
{
 version 2.0;
 format ascii;
 root "";
 case "";
 instance "";
 local "";
 class dictionary;
 object controlDict;
}

application fsiFoam;

startFrom startTime;

startTime 0;

stopAt endTime;

endTime 1;

deltaT 1;

writeControl runTime;

writeInterval 0.01;

purgeWrite 0;

writeFormat ascii;

writePrecision 14;

writeCompression uncompressed;

timeFormat general;

timePrecision 8;

runTimeModifiable no;

adjustTimeStep no;

maxCo 0.2;
