// -*- C++ -*-
// File generated by PyFoam - sorry for the ugliness

FoamFile
{
 version 2.0;
 format ascii;
 root "";
 case "";
 instance "";
 local "";
 class dictionary;
 object fvSchemes;
}

ddtSchemes
{
  default steadyState;
}

d2dt2Schemes
{
  default steadyState;
}

gradSchemes
{
  default extendedLeastSquares       0 ;
}

divSchemes
{
  default Gauss linear ;
}

laplacianSchemes
{
  default Gauss linear corrected ;
}

snGradSchemes
{
  default corrected;
}

interpolationSchemes
{
  default linear;
  interpolate(sigma) linear;
  interpolate(mu) linear;
  interpolate(lambda) linear;
}
