/*--------------------------------*- C++ -*----------------------------------*\
| =========                 |                                                 |
| \\      /  F ield         | foam-extend: Open Source CFD                    |
|  \\    /   O peration     | Version:     3.0                                |
|   \\  /    A nd           | Web:         http://www.extend-project.de       |
|    \\/     M anipulation  |                                                 |
\*---------------------------------------------------------------------------*/
FoamFile
{
    version     2.0;
    format      ascii;
    class       dictionary;
    object      stressProperties;
}
// * * * * * * * * * * * * * * * * * * * * * * * * * * * * * * * * * * * * * //

stressModel unsTotalLagrangianStress;

unsTotalLagrangianStressCoeffs
{
    nCorrectors 200;
    
    convergenceTolerance 1e-7;
    relConvergenceTolerance 1e-3;

    nonLinear no;
    debug no;
    moveMesh yes;
}

unsIncrTotalLagrangianStressCoeffs
{
    nCorrectors 200;
    
    convergenceTolerance 1e-7;
    relConvergenceTolerance 1e-3;

    nonLinear no;
    debug no;
    moveMesh yes;

    componentReference
    (
    );
}

// ************************************************************************* //
