// -*- C++ -*-
// File generated by PyFoam - sorry for the ugliness

FoamFile
{
 version 2.0;
 format ascii;
 root "";
 case "";
 instance "";
 local "";
 class dictionary;
 object fvSolution;
}

solvers
{

  p
  {
    solver           PCG;
    preconditioner   DIC;
    tolerance        1e-09;
    relTol           1.0e-3;
  }

  U
  {
    solver BiCGStab;
    preconditioner DILU;
    tolerance 1e-10;
  }
}


PIMPLE
{
  nOuterCorrectors 100;
  nCorrectors 5;
  nNonOrthogonalCorrectors 0;
  tolerance 1.0e-6;
  relTol 1.0e-2;
}

relaxationFactors
{
  U 0.9;
}
