/*---------------------------------------------------------------------------*\
| =========                 |                                                 |
| \\      /  F ield         | OpenFOAM: The Open Source CFD Toolbox           |
|  \\    /   O peration     | Version:  1.0                                   |
|   \\  /    A nd           | Web:      http://www.openfoam.org               |
|    \\/     M anipulation  |                                                 |
\*---------------------------------------------------------------------------*/

FoamFile
{
    version         2.0;
    format          ascii;

    root            "";
    case            "";
    instance        "";
    local           "";

    class           dictionary;
    object          fvSchemes;
}

// * * * * * * * * * * * * * * * * * * * * * * * * * * * * * * * * * * * * * //

d2dt2Schemes
{
    default     backward2;
}

gradSchemes
{
    default extendedLeastSquares       0 ;
}

divSchemes
{
    default         Gauss linear;
}

laplacianSchemes
{
    default             Gauss linear corrected ;
}

snGradSchemes
{
    default corrected;
}

interpolationSchemes
{
    default                  linear;
    interpolate(sigma) linear;
    interpolate(mu) linear;
}

// ************************************************************************* //
