/*---------------------------------------------------------------------------*\
| =========                 |                                                 |
| \\      /  F ield         | OpenFOAM: The Open Source CFD Toolbox           |
|  \\    /   O peration     | Version:  1.0                                   |
|   \\  /    A nd           | Web:      http://www.openfoam.org               |
|    \\/     M anipulation  |                                                 |
\*---------------------------------------------------------------------------*/

FoamFile
{
    version         2.0;
    format          ascii;

    root            "";
    case            "";
    instance        "";
    local           "";

    class           dictionary;
    object          fvSolution;
}

// * * * * * * * * * * * * * * * * * * * * * * * * * * * * * * * * * * * * * //

solvers
{
    U
    {
        solver           PCG;
        preconditioner   DIC;
        tolerance        1e-14;
        relTol           1e-2;
    }
}

solidMechanics
{
  tolerance 1e-13;
  relTol 1.0e-5;
  minIter 5;
  maxIter 500;
  divSigmaExp standard;
  divSigmaLargeStrainExp standard;
  moveMeshMethod leastSquares;
  gravity gravity       [ 0 1 -2 0 0 0 0 ] (0 0 0) ;
}

relaxationFactors
{
    U 0.9;
}


// ************************************************************************* //
